src/examples/case14_twoarea/two_area_1pulim/results/res_branch_2.csv
branch,from_bus,to_bus,X,B,G,Bfr,Bto,p_from,p_to,q_from,q_to,p_loss,q_loss,s_from,s_to,rate_a,ang_deg,angmin,angmax
7,4,5,0.07018333333333335,-13.750861129582134,2.615635185180549,0.0,0.0,-0.33787581522299465,0.33935335803523836,-0.061566287711194115,0.06933399405621044,0.001477542812243715,0.00776770634501632,0.3434391857303717,0.3463638323231502,1.0,-1.2204026257540352,-60.0001403060998,60.0001403060998
4,2,4,0.2938666666666667,-3.274849999726149,0.6475778135801491,0.028333333333333335,0.028333333333333335,0.4155293663456583,-0.40617714469537936,-0.06414745151757313,0.050651463268667346,0.009352221650278936,-0.013495988248905785,0.4204516022467077,0.4093231530272241,1.0,6.640879857766145,-60.0001403060998,60.0001403060998
2,1,5,0.37173333333333336,-2.634446441553089,0.3829065851070123,0.041,0.041,0.5437283043325418,-0.5294834734113792,-0.02171676336791634,0.029213782603884894,0.014244830921162577,0.007497019235968554,0.5441618203655225,0.5302887833150969,1.0,10.48375752742518,-60.0001403060998,60.0001403060998
3,2,3,0.32995,-2.9705137433791546,0.423047252012082,0.0365,0.0365,0.4079819015314041,-0.40073680404365575,-0.032666010392546005,0.0056471376232928115,0.007245097487748375,-0.027018872769253195,0.4092875519877758,0.40077659148016587,1.0,7.231082804034927,-60.0001403060998,60.0001403060998
5,2,5,0.28980000000000006,-3.32235273589815,0.6528916090731525,0.028833333333333336,0.028833333333333336,0.34136705931222644,-0.33504723518882595,-0.0885864532289124,0.05835674389548996,0.006319824123400486,-0.030229709333422436,0.3526741114388117,0.34009139854715564,1.0,5.42047723201211,-60.0001403060998,60.0001403060998
6,3,4,0.28505,-3.324436966625986,0.7815138436541214,0.010666666666666668,0.010666666666666668,-0.04074894773439935,0.040861382245899934,-0.021651348609566214,-0.00048254425268578636,0.00011243451150058648,-0.022133892862252,0.04614387974665519,0.040864231401084083,1.0,-0.5902029462687821,-60.0001403060998,60.0001403060998
1,1,2,0.09861666666666669,-9.763222778777191,1.918653954227162,0.044000000000000004,0.044000000000000004,0.999764168497694,-0.9824368439293453,0.021716753449047988,-0.03049691234268189,0.017327324568348734,-0.008780158893633903,1.0000000049961262,0.9829100742042937,1.0,5.06328029541307,-60.0001403060998,60.0001403060998
